matpower/matpower-converter/src/test/resources/ieee14-inverted-voltage-limits.xiidm
<?xml version="1.0" encoding="UTF-8"?>
<iidm:network xmlns:iidm="http://www.powsybl.org/schema/iidm/1_17" xmlns:slt="http://www.powsybl.org/schema/iidm/ext/slack_terminal/1_5" id="ieee14-inverted-voltage-limits" caseDate="2020-01-01T00:00:00.000Z" forecastDistance="0" sourceFormat="MATPOWER" minimumValidationLevel="STEADY_STATE_HYPOTHESIS">
    <iidm:substation id="SUB-1">
        <iidm:voltageLevel id="VL-1" nominalV="1.0" lowVoltageLimit="0.9" highVoltageLimit="1.1" topologyKind="BUS_BREAKER">
            <iidm:busBreakerTopology>
                <iidm:bus id="BUS-1" name="Bus 1     HV" v="1.06" angle="0.0"/>
            </iidm:busBreakerTopology>
            <iidm:generator id="GEN-1" energySource="OTHER" minP="0.0" maxP="332.4" ratedS="100.0" targetP="232.4" localTargetV="1.06" localTargetQ="-16.9" bus="BUS-1" connectableBus="BUS-1">
                <iidm:minMaxReactiveLimits minQ="0.0" maxQ="10.0"/>
                <iidm:voltageRegulation mode="VOLTAGE" regulating="true"/>
            </iidm:generator>
        </iidm:voltageLevel>
    </iidm:substation>
    <iidm:substation id="SUB-2">
        <iidm:voltageLevel id="VL-2" nominalV="1.0" lowVoltageLimit="0.94" highVoltageLimit="1.06" topologyKind="BUS_BREAKER">
            <iidm:busBreakerTopology>
                <iidm:bus id="BUS-2" name="Bus 2     HV" v="1.045" angle="-4.98"/>
            </iidm:busBreakerTopology>
            <iidm:generator id="GEN-2" energySource="OTHER" minP="0.0" maxP="140.0" ratedS="100.0" targetP="40.0" localTargetV="1.045" localTargetQ="42.4" bus="BUS-2" connectableBus="BUS-2">
                <iidm:minMaxReactiveLimits minQ="-40.0" maxQ="50.0"/>
                <iidm:voltageRegulation mode="VOLTAGE" regulating="true"/>
            </iidm:generator>
            <iidm:load id="LOAD-2" loadType="UNDEFINED" p0="21.7" q0="12.7" bus="BUS-2" connectableBus="BUS-2"/>
        </iidm:voltageLevel>
    </iidm:substation>
    <iidm:substation id="SUB-3">
        <iidm:voltageLevel id="VL-3" nominalV="1.0" lowVoltageLimit="0.94" highVoltageLimit="1.06" topologyKind="BUS_BREAKER">
            <iidm:busBreakerTopology>
                <iidm:bus id="BUS-3" name="Bus 3     HV" v="1.01" angle="-12.72"/>
            </iidm:busBreakerTopology>
            <iidm:generator id="GEN-3" energySource="OTHER" minP="0.0" maxP="100.0" ratedS="100.0" targetP="0.0" localTargetV="1.01" localTargetQ="23.4" bus="BUS-3" connectableBus="BUS-3">
                <iidm:minMaxReactiveLimits minQ="0.0" maxQ="40.0"/>
                <iidm:voltageRegulation mode="VOLTAGE" regulating="true"/>
            </iidm:generator>
            <iidm:load id="LOAD-3" loadType="UNDEFINED" p0="94.2" q0="19.0" bus="BUS-3" connectableBus="BUS-3"/>
        </iidm:voltageLevel>
    </iidm:substation>
    <iidm:substation id="SUB-4">
        <iidm:voltageLevel id="VL-4" nominalV="1.0" lowVoltageLimit="0.94" highVoltageLimit="1.06" topologyKind="BUS_BREAKER">
            <iidm:busBreakerTopology>
                <iidm:bus id="BUS-4" name="Bus 4     HV" v="1.019" angle="-10.33"/>
                <iidm:bus id="BUS-7" name="Bus 7     ZV" v="1.062" angle="-13.37"/>
                <iidm:bus id="BUS-9" name="Bus 9     LV" v="1.056" angle="-14.94"/>
            </iidm:busBreakerTopology>
            <iidm:load id="LOAD-4" loadType="UNDEFINED" p0="47.8" q0="-3.9" bus="BUS-4" connectableBus="BUS-4"/>
            <iidm:load id="LOAD-9" loadType="UNDEFINED" p0="29.5" q0="16.6" bus="BUS-9" connectableBus="BUS-9"/>
            <iidm:shuntCompensator id="SHUNT-9" sectionCount="1" bus="BUS-9" connectableBus="BUS-9">
                <iidm:shuntLinearModel bPerSection="19.0" gPerSection="0.0" maximumSectionCount="1"/>
            </iidm:shuntCompensator>
        </iidm:voltageLevel>
        <iidm:twoWindingsTransformer id="TWT-4-7" r="0.0" x="0.0020912" ratedU1="0.978" ratedU2="1.0" voltageLevelId1="VL-4" bus1="BUS-4" connectableBus1="BUS-4" voltageLevelId2="VL-4" bus2="BUS-7" connectableBus2="BUS-7"/>
        <iidm:twoWindingsTransformer id="TWT-4-9" r="0.0" x="0.0055618" ratedU1="0.969" ratedU2="1.0" voltageLevelId1="VL-4" bus1="BUS-4" connectableBus1="BUS-4" voltageLevelId2="VL-4" bus2="BUS-9" connectableBus2="BUS-9"/>
    </iidm:substation>
    <iidm:substation id="SUB-5">
        <iidm:voltageLevel id="VL-5" nominalV="1.0" lowVoltageLimit="0.94" highVoltageLimit="1.06" topologyKind="BUS_BREAKER">
            <iidm:busBreakerTopology>
                <iidm:bus id="BUS-5" name="Bus 5     HV" v="1.02" angle="-8.78"/>
                <iidm:bus id="BUS-6" name="Bus 6     LV" v="1.07" angle="-14.22"/>
            </iidm:busBreakerTopology>
            <iidm:generator id="GEN-6" energySource="OTHER" minP="0.0" maxP="100.0" ratedS="100.0" targetP="0.0" localTargetV="1.07" localTargetQ="12.2" bus="BUS-6" connectableBus="BUS-6">
                <iidm:minMaxReactiveLimits minQ="-6.0" maxQ="24.0"/>
                <iidm:voltageRegulation mode="VOLTAGE" regulating="true"/>
            </iidm:generator>
            <iidm:load id="LOAD-5" loadType="UNDEFINED" p0="7.6" q0="1.6" bus="BUS-5" connectableBus="BUS-5"/>
            <iidm:load id="LOAD-6" loadType="UNDEFINED" p0="11.2" q0="7.5" bus="BUS-6" connectableBus="BUS-6"/>
        </iidm:voltageLevel>
        <iidm:twoWindingsTransformer id="TWT-5-6" r="0.0" x="0.0025202000000000002" ratedU1="0.932" ratedU2="1.0" voltageLevelId1="VL-5" bus1="BUS-5" connectableBus1="BUS-5" voltageLevelId2="VL-5" bus2="BUS-6" connectableBus2="BUS-6"/>
    </iidm:substation>
    <iidm:substation id="SUB-8">
        <iidm:voltageLevel id="VL-8" nominalV="1.0" lowVoltageLimit="0.94" highVoltageLimit="1.06" topologyKind="BUS_BREAKER">
            <iidm:busBreakerTopology>
                <iidm:bus id="BUS-8" name="Bus 8     TV" v="1.09" angle="-13.36"/>
            </iidm:busBreakerTopology>
            <iidm:generator id="GEN-8" energySource="OTHER" minP="0.0" maxP="100.0" ratedS="100.0" targetP="0.0" localTargetV="1.09" localTargetQ="17.4" bus="BUS-8" connectableBus="BUS-8">
                <iidm:minMaxReactiveLimits minQ="-6.0" maxQ="24.0"/>
                <iidm:voltageRegulation mode="VOLTAGE" regulating="true"/>
            </iidm:generator>
        </iidm:voltageLevel>
    </iidm:substation>
    <iidm:substation id="SUB-10">
        <iidm:voltageLevel id="VL-10" nominalV="1.0" lowVoltageLimit="0.94" highVoltageLimit="1.06" topologyKind="BUS_BREAKER">
            <iidm:busBreakerTopology>
                <iidm:bus id="BUS-10" name="Bus 10    LV" v="1.051" angle="-15.1"/>
            </iidm:busBreakerTopology>
            <iidm:load id="LOAD-10" loadType="UNDEFINED" p0="9.0" q0="5.8" bus="BUS-10" connectableBus="BUS-10"/>
        </iidm:voltageLevel>
    </iidm:substation>
    <iidm:substation id="SUB-11">
        <iidm:voltageLevel id="VL-11" nominalV="1.0" lowVoltageLimit="0.94" highVoltageLimit="1.06" topologyKind="BUS_BREAKER">
            <iidm:busBreakerTopology>
                <iidm:bus id="BUS-11" name="Bus 11    LV" v="1.057" angle="-14.79"/>
            </iidm:busBreakerTopology>
            <iidm:load id="LOAD-11" loadType="UNDEFINED" p0="3.5" q0="1.8" bus="BUS-11" connectableBus="BUS-11"/>
        </iidm:voltageLevel>
    </iidm:substation>
    <iidm:substation id="SUB-12">
        <iidm:voltageLevel id="VL-12" nominalV="1.0" lowVoltageLimit="0.94" highVoltageLimit="1.06" topologyKind="BUS_BREAKER">
            <iidm:busBreakerTopology>
                <iidm:bus id="BUS-12" name="Bus 12    LV" v="1.055" angle="-15.07"/>
            </iidm:busBreakerTopology>
            <iidm:load id="LOAD-12" loadType="UNDEFINED" p0="6.1" q0="1.6" bus="BUS-12" connectableBus="BUS-12"/>
        </iidm:voltageLevel>
    </iidm:substation>
    <iidm:substation id="SUB-13">
        <iidm:voltageLevel id="VL-13" nominalV="1.0" lowVoltageLimit="0.94" highVoltageLimit="1.06" topologyKind="BUS_BREAKER">
            <iidm:busBreakerTopology>
                <iidm:bus id="BUS-13" name="Bus 13    LV" v="1.05" angle="-15.16"/>
            </iidm:busBreakerTopology>
            <iidm:load id="LOAD-13" loadType="UNDEFINED" p0="13.5" q0="5.8" bus="BUS-13" connectableBus="BUS-13"/>
        </iidm:voltageLevel>
    </iidm:substation>
    <iidm:substation id="SUB-14">
        <iidm:voltageLevel id="VL-14" nominalV="1.0" lowVoltageLimit="0.94" highVoltageLimit="1.06" topologyKind="BUS_BREAKER">
            <iidm:busBreakerTopology>
                <iidm:bus id="BUS-14" name="Bus 14    LV" v="1.036" angle="-16.04"/>
            </iidm:busBreakerTopology>
            <iidm:load id="LOAD-14" loadType="UNDEFINED" p0="14.9" q0="5.0" bus="BUS-14" connectableBus="BUS-14"/>
        </iidm:voltageLevel>
    </iidm:substation>
    <iidm:line id="LINE-1-2" r="1.9380000000000002E-4" x="5.917E-4" b1="2.64" b2="2.64" voltageLevelId1="VL-1" bus1="BUS-1" connectableBus1="BUS-1" voltageLevelId2="VL-2" bus2="BUS-2" connectableBus2="BUS-2"/>
    <iidm:line id="LINE-1-5" r="5.403000000000001E-4" x="0.0022304" b1="2.46" b2="2.46" voltageLevelId1="VL-1" bus1="BUS-1" connectableBus1="BUS-1" voltageLevelId2="VL-5" bus2="BUS-5" connectableBus2="BUS-5"/>
    <iidm:line id="LINE-2-3" r="4.699E-4" x="0.0019797" b1="2.19" b2="2.19" voltageLevelId1="VL-2" bus1="BUS-2" connectableBus1="BUS-2" voltageLevelId2="VL-3" bus2="BUS-3" connectableBus2="BUS-3"/>
    <iidm:line id="LINE-2-4" r="5.811E-4" x="0.0017632000000000001" b1="1.7000000000000002" b2="1.7000000000000002" voltageLevelId1="VL-2" bus1="BUS-2" connectableBus1="BUS-2" voltageLevelId2="VL-4" bus2="BUS-4" connectableBus2="BUS-4"/>
    <iidm:line id="LINE-2-5" r="5.695E-4" x="0.0017388" b1="1.73" b2="1.73" voltageLevelId1="VL-2" bus1="BUS-2" connectableBus1="BUS-2" voltageLevelId2="VL-5" bus2="BUS-5" connectableBus2="BUS-5"/>
    <iidm:line id="LINE-3-4" r="6.701E-4" x="0.0017102999999999999" b1="0.64" b2="0.64" voltageLevelId1="VL-3" bus1="BUS-3" connectableBus1="BUS-3" voltageLevelId2="VL-4" bus2="BUS-4" connectableBus2="BUS-4"/>
    <iidm:line id="LINE-4-5" r="1.3350000000000002E-4" x="4.211E-4" voltageLevelId1="VL-4" bus1="BUS-4" connectableBus1="BUS-4" voltageLevelId2="VL-5" bus2="BUS-5" connectableBus2="BUS-5"/>
    <iidm:line id="LINE-6-11" r="9.498E-4" x="0.001989" voltageLevelId1="VL-5" bus1="BUS-6" connectableBus1="BUS-6" voltageLevelId2="VL-11" bus2="BUS-11" connectableBus2="BUS-11"/>
    <iidm:line id="LINE-6-12" r="0.0012291000000000001" x="0.0025581" voltageLevelId1="VL-5" bus1="BUS-6" connectableBus1="BUS-6" voltageLevelId2="VL-12" bus2="BUS-12" connectableBus2="BUS-12"/>
    <iidm:line id="LINE-6-13" r="6.615E-4" x="0.0013027" voltageLevelId1="VL-5" bus1="BUS-6" connectableBus1="BUS-6" voltageLevelId2="VL-13" bus2="BUS-13" connectableBus2="BUS-13"/>
    <iidm:line id="LINE-7-8" r="0.0" x="0.0017615" voltageLevelId1="VL-4" bus1="BUS-7" connectableBus1="BUS-7" voltageLevelId2="VL-8" bus2="BUS-8" connectableBus2="BUS-8"/>
    <iidm:line id="LINE-7-9" r="0.0" x="0.0011001" voltageLevelId1="VL-4" bus1="BUS-7" connectableBus1="BUS-7" voltageLevelId2="VL-4" bus2="BUS-9" connectableBus2="BUS-9"/>
    <iidm:line id="LINE-9-10" r="3.181E-4" x="8.45E-4" voltageLevelId1="VL-4" bus1="BUS-9" connectableBus1="BUS-9" voltageLevelId2="VL-10" bus2="BUS-10" connectableBus2="BUS-10"/>
    <iidm:line id="LINE-9-14" r="0.0012711" x="0.0027038" voltageLevelId1="VL-4" bus1="BUS-9" connectableBus1="BUS-9" voltageLevelId2="VL-14" bus2="BUS-14" connectableBus2="BUS-14"/>
    <iidm:line id="LINE-10-11" r="8.204999999999999E-4" x="0.0019207" voltageLevelId1="VL-10" bus1="BUS-10" connectableBus1="BUS-10" voltageLevelId2="VL-11" bus2="BUS-11" connectableBus2="BUS-11"/>
    <iidm:line id="LINE-12-13" r="0.0022092" x="0.0019988000000000002" voltageLevelId1="VL-12" bus1="BUS-12" connectableBus1="BUS-12" voltageLevelId2="VL-13" bus2="BUS-13" connectableBus2="BUS-13"/>
    <iidm:line id="LINE-13-14" r="0.0017093" x="0.0034802" voltageLevelId1="VL-13" bus1="BUS-13" connectableBus1="BUS-13" voltageLevelId2="VL-14" bus2="BUS-14" connectableBus2="BUS-14"/>
    <iidm:extension id="VL-1">
        <slt:slackTerminal id="GEN-1"/>
    </iidm:extension>
</iidm:network>
